.MODEL DMOD D (IS=1E-17 RS=20 CJO=1P TT = 50N)

